# particle data file
./dem.inp
./sheet.dat
../TestData/x210.dat
# output file
kcell.inp
# reduction factor for sig (characteristic length)
2
1.0  1 
0.25  2 
# endcap (0:none, 1:added)
 1
# place circle at nodal points (0:No, 1:Yes)
 1
# connect nodal points (0:No, 1:Yes)
 1
# Ndiv[0:1]: pixel numbers 
 500 500

# particle data file
../DEM/dem.inp
../DEM/ptc.dat
../DEM/sheet.dat
../DEM/x100.dat
